<?xml version='1.0' encoding='utf-8'?>
<edges><edge from="site1_N_end" to="site1_center" numLanes="5" speed="13.9" priority="3" id="in_N" /><edge from="site1_center" to="site1_N_end" numLanes="3" speed="13.9" priority="3" id="out_N" /><edge from="site1_S_end" to="site1_center" numLanes="5" speed="13.9" priority="3" id="in_S" /><edge from="site1_center" to="site1_S_end" numLanes="3" speed="13.9" priority="3" id="out_S" /><edge from="site1_E_end" to="site1_center" numLanes="4" speed="13.9" priority="2" id="in_E" /><edge from="site1_center" to="site1_E_end" numLanes="3" speed="13.9" priority="2" id="out_E" /><edge from="site1_W_end" to="site1_center" numLanes="4" speed="13.9" priority="2" id="in_W" /><edge from="site1_center" to="site1_W_end" numLanes="3" speed="13.9" priority="2" id="out_W" /></edges>