<?xml version='1.0' encoding='utf-8'?>
<nodes><node id="site1_center" x="0" y="0" type="traffic_light" /><node id="site1_N_end" x="0.0" y="300.0" type="priority" /><node id="site1_S_end" x="0.0" y="-300.0" type="priority" /><node id="site1_E_end" x="300.0" y="0.0" type="priority" /><node id="site1_W_end" x="-300.0" y="-0.0" type="priority" /></nodes>